data_none

_audit_creation_method generated by ABACUS

_cell_length_a 10
_cell_length_b 10
_cell_length_c 10
_cell_angle_alpha 90
_cell_angle_beta 90
_cell_angle_gamma 90

_symmetry_space_group_name_H-M 
_symmetry_Int_Tables_number 

loop_
_atom_site_label
_atom_site_fract_x
_atom_site_fract_y
_atom_site_fract_z
H 0.538154 0.406861 0.360573
H 0.39454 0.480321 0.438469
H 0.552092 0.56545 0.442709
H 0.528185 0.416415 0.539183
C 0.503251 0.467255 0.445232
